units(length='cm', time='s', quantity='mol', act_energy='cal/mol')

ideal_gas(name='gas',
          elements="H C O N Ar",
          species="""H         H2        O         O2        OH
                     HO2       H2O       H2O2      CO        CO2
                     HCO       CH3       CH4       C2H6      CH2O
                     C2H5      CH2       CH3O      CH2OH     CH
                     C2H2      C2H4      C2H3      CH3OH     CH3HCO
                     C2H       CH2CO     HCCO      C2H4O     SCH2
                     C2        C2O       CH3CO     C         CH3CO3
                     CH3CO3H   CH3O2     CH3O2H    C2H5O2H   C2H5O2
                     CH3CO2    CH3CO2H   C2H5OH    C2H5O     SC2H5O
                     PC2H5O    CH2HCO    CN        H2CN      N
                     NH        HCN       NO        HCNO      HOCN
                     HNCO      NCO       N2O       NH2       N2O3
                     HNO       NO2       C2N2      NNH       NH3
                     N2H2      HONO      NO3       HNO3      N2H3
                     N2H4      CNN       HCNN      N2O4      NH2OH
                     HNOH      H2NO      HNNO      HCNH      NCN
                     HNCN      H2CNO     CH3NO     CH2CHOW   C2H3O
                     CH3HCOW   C3H6OH    O2C3H6OH  C3H5O2    C3H5O2H
                     C3H5O     NC3H7O2   NC3H7O2H  IC3H7O2   IC3H7O2H
                     IC3H7O    NC3H7O    C3H6      C3H8      IC3H7
                     NC3H7     C3H2      C3H3      SC3H5     PC3H4
                     TC3H5     C3H6O     C2H5CHO   C2H5CO    C3H5
                     C3H4      IC4H7     C4H2      C4H       C4H6
                     H2C4O     C4H4      IC4H5     NC4H5     C4H8
                     T2C4H8    C2C4H8    IC4H3     NC4H3     C6H6
                     C6H5O     C6H5      AR        N2""",
          reactions='all',
          transport='Mix',
          initial_state=state(temperature=300.0, pressure=OneAtm))

#-------------------------------------------------------------------------------
# Species data
#-------------------------------------------------------------------------------

species(name='H',
        atoms='H:1',
        thermo=(NASA([200.00, 1000.00],
                     [ 2.50000000E+00,  0.00000000E+00,  0.00000000E+00,
                       0.00000000E+00,  0.00000000E+00,  2.54736600E+04,
                      -4.46682850E-01]),
                NASA([1000.00, 6000.00],
                     [ 2.50000000E+00,  0.00000000E+00,  0.00000000E+00,
                       0.00000000E+00,  0.00000000E+00,  2.54736600E+04,
                      -4.46682850E-01])),
        transport=gas_transport(geom='atom',
                                diam=2.05,
                                well_depth=145.0),
        note='L6/94')

species(name='H2',
        atoms='H:2',
        thermo=(NASA([200.00, 1000.00],
                     [ 2.34430290E+00,  7.98042480E-03, -1.94779170E-05,
                       2.01569670E-08, -7.37602890E-12, -9.17924130E+02,
                       6.83002180E-01]),
                NASA([1000.00, 6000.00],
                     [ 2.93283050E+00,  8.26598020E-04, -1.46400570E-07,
                       1.54098510E-11, -6.88796150E-16, -8.13055820E+02,
                      -1.02431640E+00])),
        transport=gas_transport(geom='linear',
                                diam=2.92,
                                well_depth=38.0,
                                polar=0.79,
                                rot_relax=280.0),
        note='REFELEMENTRUS78')

species(name='O',
        atoms='O:1',
        thermo=(NASA([200.00, 1000.00],
                     [ 3.16826710E+00, -3.27931884E-03,  6.64306396E-06,
                      -6.12806624E-09,  2.11265971E-12,  2.91222592E+04,
                       2.05193346E+00]),
                NASA([1000.00, 6000.00],
                     [ 2.54363697E+00, -2.73162486E-05, -4.19029520E-09,
                       4.95481845E-12, -4.79553694E-16,  2.92260120E+04,
                       4.92229457E+00])),
        transport=gas_transport(geom='atom',
                                diam=2.75,
                                well_depth=80.0),
        note='L1/90')

species(name='O2',
        atoms='O:2',
        thermo=(NASA([200.00, 1000.00],
                     [ 3.78245636E+00, -2.99673415E-03,  9.84730200E-06,
                      -9.68129508E-09,  3.24372836E-12, -1.06394356E+03,
                       3.65767573E+00]),
                NASA([1000.00, 6000.00],
                     [ 3.66096083E+00,  6.56365523E-04, -1.41149485E-07,
                       2.05797658E-11, -1.29913248E-15, -1.21597725E+03,
                       3.41536184E+00])),
        transport=gas_transport(geom='linear',
                                diam=3.458,
                                well_depth=107.4,
                                polar=1.6,
                                rot_relax=3.8),
        note='REFELEMENTRUS89')

species(name='OH',
        atoms='H:1 O:1',
        thermo=(NASA([200.00, 1000.00],
                     [ 3.99201543E+00, -2.40131752E-03,  4.61793841E-06,
                      -3.88113333E-09,  1.36411470E-12,  3.61508056E+03,
                      -1.03925458E-01]),
                NASA([1000.00, 6000.00],
                     [ 2.83864607E+00,  1.10725586E-03, -2.93914978E-07,
                       4.20524247E-11, -2.42169092E-15,  3.94395852E+03,
                       5.84452662E+00])),
        transport=gas_transport(geom='linear',
                                diam=2.75,
                                well_depth=80.0),
        note='RUS78')

species(name='HO2',
        atoms='H:1 O:2',
        thermo=(NASA([200.00, 1000.00],
                     [ 4.30178800E+00, -4.74902010E-03,  2.11579530E-05,
                      -2.42759610E-08,  9.29206700E-12,  2.94808760E+02,
                       3.71670100E+00]),
                NASA([1000.00, 6000.00],
                     [ 4.17226590E+00,  1.88120980E-03, -3.46292970E-07,
                       1.94685160E-11,  1.76091530E-16,  6.18188510E+01,
                       2.95779740E+00])),
        transport=gas_transport(geom='nonlinear',
                                diam=3.458,
                                well_depth=107.4,
                                rot_relax=1.0),
        note='L5/89')

species(name='H2O',
        atoms='H:2 O:1',
        thermo=(NASA([200.00, 1000.00],
                     [ 4.19863520E+00, -2.03640170E-03,  6.52034160E-06,
                      -5.48792690E-09,  1.77196800E-12, -3.02937260E+04,
                      -8.49009010E-01]),
                NASA([1000.00, 6000.00],
                     [ 2.67703890E+00,  2.97318160E-03, -7.73768890E-07,
                       9.44335140E-11, -4.26899910E-15, -2.98858940E+04,
                       6.88255000E+00])),
        transport=gas_transport(geom='nonlinear',
                                diam=2.605,
                                well_depth=572.4,
                                dipole=1.844,
                                rot_relax=4.0),
        note='L5/89')

species(name='H2O2',
        atoms='H:2 O:2',
        thermo=(NASA([200.00, 1000.00],
                     [ 4.27611269E+00, -5.42822417E-04,  1.67335701E-05,
                      -2.15770813E-08,  8.62454363E-12, -1.77542989E+04,
                       3.43505074E+00]),
                NASA([1000.00, 6000.00],
                     [ 4.57333537E+00,  4.04984070E-03, -1.29479479E-06,
                       1.97281710E-10, -1.13402846E-14, -1.80548121E+04,
                       7.04278488E-01])),
        transport=gas_transport(geom='nonlinear',
                                diam=3.458,
                                well_depth=107.4,
                                rot_relax=3.8),
        note='L2/93')

species(name='CO',
        atoms='C:1 O:1',
        thermo=(NASA([200.00, 1000.00],
                     [ 3.57953350E+00, -6.10353690E-04,  1.01681430E-06,
                       9.07005860E-10, -9.04424490E-13, -1.43440860E+04,
                       3.50840930E+00]),
                NASA([1000.00, 6000.00],
                     [ 3.04848590E+00,  1.35172810E-03, -4.85794050E-07,
                       7.88536440E-11, -4.69807460E-15, -1.42661170E+04,
                       6.01709770E+00])),
        transport=gas_transport(geom='linear',
                                diam=3.65,
                                well_depth=98.1,
                                polar=1.95,
                                rot_relax=1.8),
        note='RUS79')

species(name='CO2',
        atoms='C:1 O:2',
        thermo=(NASA([200.00, 1000.00],
                     [ 2.35681300E+00,  8.98412990E-03, -7.12206320E-06,
                       2.45730080E-09, -1.42885480E-13, -4.83719710E+04,
                       9.90090350E+00]),
                NASA([1000.00, 6000.00],
                     [ 4.63651110E+00,  2.74145690E-03, -9.95897590E-07,
                       1.60386660E-10, -9.16198570E-15, -4.90249040E+04,
                      -1.93489550E+00])),
        transport=gas_transport(geom='linear',
                                diam=3.763,
                                well_depth=244.0,
                                polar=2.65,
                                rot_relax=2.1),
        note='L7/88')

species(name='HCO',
        atoms='C:1 H:1 O:1',
        thermo=(NASA([200.00, 1000.00],
                     [ 4.22118584E+00, -3.24392532E-03,  1.37799446E-05,
                      -1.33144093E-08,  4.33768865E-12,  3.83956496E+03,
                       3.39437243E+00]),
                NASA([1000.00, 6000.00],
                     [ 3.64896209E+00,  3.08090819E-03, -1.12429876E-06,
                       1.86308085E-10, -1.13951828E-14,  3.71209048E+03,
                       5.06147406E+00])),
        transport=gas_transport(geom='nonlinear',
                                diam=3.59,
                                well_depth=498.0),
        note='L12/89')

species(name='CH3',
        atoms='C:1 H:3',
        thermo=(NASA([200.00, 1000.00],
                     [ 3.67333750E+00,  2.00205590E-03,  5.78531350E-06,
                      -6.98730540E-09,  2.60555990E-12,  1.64401800E+04,
                       1.60183150E+00]),
                NASA([1000.00, 6000.00],
                     [ 2.96697350E+00,  5.79366720E-03, -1.96948090E-06,
                       3.05569360E-10, -1.77678430E-14,  1.65371160E+04,
                       4.79188030E+00])),
        transport=gas_transport(geom='linear',
                                diam=3.8,
                                well_depth=144.0),
        note='L8/88')

species(name='CH4',
        atoms='C:1 H:4',
        thermo=(NASA([200.00, 1000.00],
                     [ 5.14987920E+00, -1.36710080E-02,  4.91801300E-05,
                      -4.84744030E-08,  1.66694410E-11, -1.02466480E+04,
                      -4.64132440E+00]),
                NASA([1000.00, 6000.00],
                     [ 1.63542560E+00,  1.00844310E-02, -3.36923690E-06,
                       5.34972800E-10, -3.15528170E-14, -1.00056030E+04,
                       9.99369530E+00])),
        transport=gas_transport(geom='nonlinear',
                                diam=3.746,
                                well_depth=141.4,
                                polar=2.6,
                                rot_relax=13.0),
        note='ANHARMONICL8/88')

species(name='C2H6',
        atoms='C:2 H:6',
        thermo=(NASA([300.00, 1000.00],
                     [ 1.53952600E+00,  1.50408410E-02,  6.68471150E-06,
                      -1.33829480E-08,  4.85613980E-12, -1.12487660E+04,
                       1.41073750E+01]),
                NASA([1000.00, 5000.00],
                     [ 4.70288470E+00,  1.40426350E-02, -4.64693770E-06,
                       6.74737380E-10, -3.50893120E-14, -1.26719880E+04,
                      -4.54339500E+00])),
        transport=gas_transport(geom='nonlinear',
                                diam=4.302,
                                well_depth=252.3,
                                rot_relax=1.5),
        note='ETHANEL5/84')

species(name='CH2O',
        atoms='C:1 H:2 O:1',
        thermo=(NASA([200.00, 1000.00],
                     [ 4.79370360E+00, -9.90815180E-03,  3.73214590E-05,
                      -3.79279020E-08,  1.31770150E-11, -1.43089550E+04,
                       6.02887020E-01]),
                NASA([1000.00, 6000.00],
                     [ 3.16948070E+00,  6.19327420E-03, -2.25059810E-06,
                       3.65982450E-10, -2.20154100E-14, -1.44784250E+04,
                       6.04235330E+00])),
        transport=gas_transport(geom='nonlinear',
                                diam=3.59,
                                well_depth=498.0,
                                rot_relax=2.0),
        note='L8/88')

species(name='C2H5',
        atoms='C:2 H:5',
        thermo=(NASA([200.00, 1000.00],
                     [ 4.30585800E+00, -4.18336380E-03,  4.97072700E-05,
                      -5.99058740E-08,  2.30484780E-11,  1.28417140E+04,
                       4.71002360E+00]),
                NASA([1000.00, 6000.00],
                     [ 4.28788140E+00,  1.24338930E-02, -4.41391190E-06,
                       7.06541020E-10, -4.20351360E-14,  1.20564550E+04,
                       8.46025830E-01])),
        transport=gas_transport(geom='nonlinear',
                                diam=4.302,
                                well_depth=252.3,
                                rot_relax=1.5),
        note='T12/91')

species(name='CH2',
        atoms='C:1 H:2',
        thermo=(NASA([200.00, 1000.00],
                     [ 4.17936550E+00, -2.21785530E-03,  7.96536020E-06,
                      -6.91273390E-09,  2.24753180E-12,  4.57508570E+04,
                      -7.61137030E-03]),
                NASA([1000.00, 6000.00],
                     [ 2.53871220E+00,  3.82254910E-03, -1.28613040E-06,
                       1.98003080E-10, -1.14657430E-14,  4.61292530E+04,
                       8.10546480E+00])),
        transport=gas_transport(geom='linear',
                                diam=3.8,
                                well_depth=144.0),
        note='TRIPLETRUS79')

species(name='CH3O',
        atoms='C:1 H:3 O:1',
        thermo=(NASA([200.00, 1000.00],
                     [ 3.26523370E+00,  3.30316650E-03,  1.70488010E-05,
                      -2.27096300E-08,  8.80717680E-12,  7.32295800E+02,
                       7.42573570E+00]),
                NASA([1000.00, 6000.00],
                     [ 4.26533080E+00,  7.85764060E-03, -2.84104380E-06,
                       4.60451900E-10, -2.76319060E-14,  5.93510660E+01,
                       3.93099470E-01])),
        transport=gas_transport(geom='nonlinear',
                                diam=3.69,
                                well_depth=417.0,
                                dipole=1.7,
                                rot_relax=2.0),
        note='L8/88')

species(name='CH2OH',
        atoms='C:1 H:3 O:1',
        thermo=(NASA([200.00, 1000.00],
                     [ 3.86440270E+00,  5.59131610E-03,  5.95146350E-06,
                      -1.04771760E-08,  4.37931990E-12, -2.50504930E+03,
                       5.47106520E+00]),
                NASA([1000.00, 6000.00],
                     [ 4.67767330E+00,  6.56087720E-03, -2.26368640E-06,
                       3.55304690E-10, -2.08429590E-14, -2.89280480E+03,
                       4.80418790E-01])),
        transport=gas_transport(geom='nonlinear',
                                diam=3.69,
                                well_depth=417.0,
                                dipole=1.7,
                                rot_relax=2.0),
        note='T9/92')

species(name='CH',
        atoms='C:1 H:1',
        thermo=(NASA([200.00, 1000.00],
                     [ 3.48981660E+00,  3.23835540E-04, -1.68899060E-06,
                       3.16217330E-09, -1.40609070E-12,  7.07999390E+04,
                       2.08401110E+00]),
                NASA([1000.00, 6000.00],
                     [ 2.52090620E+00,  1.76537260E-03, -4.61475810E-07,
                       5.92885670E-11, -3.34732090E-15,  7.11340820E+04,
                       7.40532230E+00])),
        transport=gas_transport(geom='linear',
                                diam=2.75,
                                well_depth=80.0),
        note='RUS79')

species(name='C2H2',
        atoms='C:2 H:2',
        thermo=(NASA([200.00, 1000.00],
                     [ 8.08691080E-01,  2.33613950E-02, -3.55166360E-05,
                       2.80145660E-08, -8.50044590E-12,  2.63327640E+04,
                       1.39396710E+01]),
                NASA([1000.00, 6000.00],
                     [ 4.65870470E+00,  4.88409490E-03, -1.60835630E-06,
                       2.46987870E-10, -1.38615050E-14,  2.56632180E+04,
                      -3.99790740E+00])),
        transport=gas_transport(geom='linear',
                                diam=4.1,
                                well_depth=209.0,
                                rot_relax=2.5),
        note='L8/88')

species(name='C2H4',
        atoms='C:2 H:4',
        thermo=(NASA([300.00, 1000.00],
                     [ 1.21766000E+00,  1.30026750E-02,  3.50374470E-06,
                      -1.11555140E-08,  4.72032220E-12,  5.33738280E+03,
                       1.54801690E+01]),
                NASA([1000.00, 5000.00],
                     [ 4.39854530E+00,  9.62286070E-03, -3.16637760E-06,
                       4.57476280E-10, -2.36594060E-14,  4.11532030E+03,
                      -2.46274380E+00])),
        transport=gas_transport(geom='nonlinear',
                                diam=3.971,
                                well_depth=280.8,
                                rot_relax=1.5),
        note='ETHYLENEL4/85')

species(name='C2H3',
        atoms='C:2 H:3',
        thermo=(NASA([200.00, 1000.00],
                     [ 3.00196020E+00,  3.03043540E-03,  2.44443150E-05,
                      -3.58102420E-08,  1.51087000E-11,  3.48681730E+04,
                       9.33044950E+00]),
                NASA([1000.00, 6000.00],
                     [ 4.70253100E+00,  7.26422830E-03, -2.58019920E-06,
                       4.13199440E-10, -2.45914920E-14,  3.40296750E+04,
                      -1.42937140E+00])),
        transport=gas_transport(geom='nonlinear',
                                diam=4.1,
                                well_depth=209.0,
                                rot_relax=1.0),
        note='T06/93')

species(name='CH3OH',
        atoms='C:1 H:4 O:1',
        thermo=(NASA([200.00, 1000.00],
                     [ 5.71539480E+00, -1.52309200E-02,  6.52441820E-05,
                      -7.10808730E-08,  2.61353830E-11, -2.56427650E+04,
                      -1.50409700E+00]),
                NASA([1000.00, 6000.00],
                     [ 3.60125930E+00,  1.02432230E-02, -3.59992170E-06,
                       5.72519510E-10, -3.39127190E-14, -2.59971550E+04,
                       4.70560250E+00])),
        transport=gas_transport(geom='nonlinear',
                                diam=3.626,
                                well_depth=481.8,
                                rot_relax=1.0),
        note='L8/88')

species(name='CH3HCO',
        atoms='C:2 H:4 O:1',
        thermo=(NASA([200.00, 1000.00],
                     [ 4.72945950E+00, -3.19328580E-03,  4.75349210E-05,
                      -5.74586110E-08,  2.19311120E-11, -2.15728780E+04,
                       4.10301590E+00]),
                NASA([1000.00, 6000.00],
                     [ 5.40411080E+00,  1.17230590E-02, -4.22631370E-06,
                       6.83724510E-10, -4.09848630E-14, -2.25931220E+04,
                      -3.48079170E+00])),
        transport=gas_transport(geom='nonlinear',
                                diam=3.97,
                                well_depth=436.0,
                                rot_relax=2.0),
        note='ACETALDEL8/88')

species(name='C2H',
        atoms='C:2 H:1',
        thermo=(NASA([200.00, 1000.00],
                     [ 2.90180200E+00,  1.32859820E-02, -2.80508860E-05,
                       2.89301840E-08, -1.07447420E-11,  6.44903260E+04,
                       6.17235060E+00]),
                NASA([1000.00, 6000.00],
                     [ 3.66460600E+00,  3.82186940E-03, -1.36507430E-06,
                       2.13248280E-10, -1.23094300E-14,  6.45970550E+04,
                       3.91349730E+00])),
        transport=gas_transport(geom='linear',
                                diam=4.1,
                                well_depth=209.0,
                                rot_relax=2.5),
        note='T04/93')

species(name='CH2CO',
        atoms='C:2 H:2 O:1',
        thermo=(NASA([200.00, 1000.00],
                     [ 2.14011650E+00,  1.80883680E-02, -1.73242160E-05,
                       9.27674770E-09, -1.99150110E-12, -7.04305090E+03,
                       1.21986990E+01]),
                NASA([1000.00, 6000.00],
                     [ 5.75779010E+00,  6.34965070E-03, -2.25844070E-06,
                       3.62084620E-10, -2.15690300E-14, -7.97861130E+03,
                      -6.10640370E+00])),
        transport=gas_transport(geom='nonlinear',
                                diam=3.97,
                                well_depth=436.0,
                                rot_relax=2.0),
        note='KETENET6/94')

species(name='HCCO',
        atoms='C:2 H:1 O:1',
        thermo=(NASA([200.00, 1000.00],
                     [ 2.33501180E+00,  1.70100830E-02, -2.20188670E-05,
                       1.54064470E-08, -4.34550970E-12,  2.00502990E+04,
                       1.19767290E+01]),
                NASA([1000.00, 6000.00],
                     [ 5.84690060E+00,  3.64059600E-03, -1.29590070E-06,
                       2.07969190E-10, -1.24000220E-14,  1.92484960E+04,
                      -5.29165330E+00])),
        transport=gas_transport(geom='nonlinear',
                                diam=2.5,
                                well_depth=150.0,
                                rot_relax=1.0),
        note='T6/94')

species(name='C2H4O',
        atoms='C:2 H:4 O:1',
        thermo=(NASA([200.00, 1000.00],
                     [ 3.75905320E+00, -9.44121800E-03,  8.03097210E-05,
                      -1.00807880E-07,  4.00399210E-11, -7.56081430E+03,
                       7.84974750E+00]),
                NASA([1000.00, 6000.00],
                     [ 5.48876410E+00,  1.20461900E-02, -4.33369310E-06,
                       7.00283110E-10, -4.19490880E-14, -9.18042510E+03,
                      -7.07996050E+00])),
        transport=gas_transport(geom='nonlinear',
                                diam=3.97,
                                well_depth=436.0,
                                rot_relax=2.0),
        note='OXYRANEL8/88')

species(name='SCH2',
        atoms='C:1 H:2',
        thermo=(NASA([300.00, 1000.00],
                     [ 3.97126500E+00, -1.69908800E-04,  1.02536890E-06,
                       2.49255000E-09, -1.98126600E-12,  4.98936700E+04,
                       5.75320700E-02]),
                NASA([1000.00, 4000.00],
                     [ 3.55288800E+00,  2.06678800E-03, -1.91411600E-07,
                      -1.10467330E-10,  2.02134900E-14,  4.98497500E+04,
                       1.68657000E+00])),
        transport=gas_transport(geom='linear',
                                diam=3.8,
                                well_depth=144.0),
        note='SINGLETC12/87')

species(name='C2',
        atoms='C:2',
        thermo=(NASA([200.00, 1000.00],
                     [ 8.64705500E-01,  3.93531200E-02, -1.19818180E-04,
                       1.39081030E-07, -5.52055030E-11,  9.87313030E+04,
                       1.15301410E+01]),
                NASA([1000.00, 6000.00],
                     [ 3.79137060E+00,  5.16504730E-04, -2.54869600E-08,
                      -8.22635540E-12,  1.00861680E-15,  9.90230590E+04,
                       2.81518020E+00])),
        transport=gas_transport(geom='linear',
                                diam=3.621,
                                well_depth=97.53,
                                polar=1.76,
                                rot_relax=4.0),
        note='RUS79')

species(name='C2O',
        atoms='C:2 O:1',
        thermo=(NASA([300.00, 1000.00],
                     [ 2.96655560E+00,  1.05132290E-02, -1.35164890E-05,
                       9.93339650E-09, -3.08813760E-12,  4.53859150E+04,
                       8.44327530E+00]),
                NASA([1000.00, 4000.00],
                     [ 5.02664790E+00,  2.89182270E-03, -1.39138410E-06,
                       3.07035460E-10, -2.55679050E-14,  4.48889000E+04,
                      -1.78533980E+00])),
        transport=gas_transport(geom='linear',
                                diam=3.828,
                                well_depth=232.4,
                                rot_relax=1.0),
        note='TRIPLET110203')

species(name='CH3CO',
        atoms='C:2 H:3 O:1',
        thermo=(NASA([200.00, 1000.00],
                     [ 4.16342570E+00, -2.32616100E-04,  3.42678200E-05,
                      -4.41052270E-08,  1.72756120E-11, -2.65745290E+03,
                       7.34682800E+00]),
                NASA([1000.00, 6000.00],
                     [ 5.94477310E+00,  7.86672050E-03, -2.88658820E-06,
                       4.72708750E-10, -2.85998610E-14, -3.78730750E+03,
                      -5.01367510E+00])),
        transport=gas_transport(geom='nonlinear',
                                diam=3.97,
                                well_depth=436.0,
                                rot_relax=2.0),
        note='T9/92')

species(name='C',
        atoms='C:1',
        thermo=(NASA([200.00, 1000.00],
                     [ 2.55423950E+00, -3.21537720E-04,  7.33792230E-07,
                      -7.32234870E-10,  2.66521440E-13,  8.54426810E+04,
                       4.53130850E+00]),
                NASA([1000.00, 6000.00],
                     [ 2.60558300E+00, -1.95934340E-04,  1.06737220E-07,
                      -1.64239400E-11,  8.18705800E-16,  8.54117420E+04,
                       4.19238680E+00])),
        transport=gas_transport(geom='atom',
                                diam=3.298,
                                well_depth=71.4),
        note='L7/88')

species(name='CH3CO3',
        atoms='C:2 H:3 O:3',
        thermo=(NASA([300.00, 1575.00],
                     [ 5.13747438E+00,  1.59298658E-02, -8.21627846E-07,
                      -4.81982007E-09,  1.57730795E-12, -1.73772288E+04,
                       3.13626395E+00]),
                NASA([1575.00, 5000.00],
                     [ 1.14020019E+01,  8.59416721E-03, -3.06838374E-06,
                       4.90245722E-10, -2.90175354E-14, -2.02745353E+04,
                      -3.30871657E+01])),
        transport=gas_transport(geom='nonlinear',
                                diam=5.176,
                                well_depth=357.0,
                                rot_relax=1.0),
        note='4/24/92THERM')

species(name='CH3CO3H',
        atoms='C:2 H:4 O:3',
        thermo=(NASA([300.00, 1374.00],
                     [ 4.09002627E+00,  2.54380593E-02, -1.22828804E-05,
                       1.55365086E-09,  2.77282260E-13, -3.55663564E+04,
                       8.74816008E+00]),
                NASA([1374.00, 5000.00],
                     [ 1.23794767E+01,  1.00368883E-02, -3.50324632E-06,
                       5.51431811E-10, -3.23046627E-14, -3.88133888E+04,
                      -3.71309181E+01])),
        transport=gas_transport(geom='nonlinear',
                                diam=5.176,
                                well_depth=357.0,
                                rot_relax=1.0),
        note='4/24/92THERM')

species(name='CH3O2',
        atoms='C:1 H:3 O:2',
        thermo=(NASA([300.00, 1000.00],
                     [ 2.09864900E+00,  1.57863570E-02,  7.56832610E-08,
                      -1.12745870E-08,  5.66651330E-12,  2.06958790E+03,
                       1.50070680E+01]),
                NASA([1000.00, 5000.00],
                     [ 6.68129630E+00,  8.00572710E-03, -2.71885070E-06,
                       4.06313650E-10, -2.19277250E-14,  5.26218510E+02,
                      -9.94238470E+00])),
        transport=gas_transport(geom='nonlinear',
                                diam=3.5,
                                well_depth=200.0,
                                rot_relax=1.0),
        note='L1/84')

species(name='CH3O2H',
        atoms='C:1 H:4 O:2',
        thermo=(NASA([200.00, 1000.00],
                     [ 3.72654981E+00,  7.51851847E-03,  2.35970425E-05,
                      -3.52694507E-08,  1.42757614E-11, -1.83982011E+04,
                       6.52443362E+00]),
                NASA([1000.00, 6000.00],
                     [ 6.86907934E+00,  1.00840883E-02, -3.66515947E-06,
                       5.96302681E-10, -3.58894156E-14, -1.98402231E+04,
                      -1.24951986E+01])),
        transport=gas_transport(geom='nonlinear',
                                diam=3.5,
                                well_depth=200.0,
                                rot_relax=1.0),
        note='T11/96')

species(name='C2H5O2H',
        atoms='C:2 H:6 O:2',
        thermo=(NASA([200.00, 1000.00],
                     [ 4.37310002E+00,  1.04422436E-02,  4.63854723E-05,
                      -7.02772770E-08,  2.93034879E-11, -2.29362227E+04,
                       8.30134323E+00]),
                NASA([1000.00, 6000.00],
                     [ 9.99511555E+00,  1.47311626E-02, -5.30621235E-06,
                       8.58442516E-10, -5.14814807E-14, -2.53850722E+04,
                      -2.53504050E+01])),
        transport=gas_transport(geom='nonlinear',
                                diam=4.53,